# CIF file generated by openbabel 2.4.1, see http://openbabel.sf.net
data_I
_chemical_name_common ''
_cell_length_a 9.45676
_cell_length_b 10.9289
_cell_length_c 22.9999
_cell_angle_alpha 90
_cell_angle_beta 90
_cell_angle_gamma 90
loop_
    _atom_site_label
    _atom_site_type_symbol
    _atom_site_fract_x
    _atom_site_fract_y
    _atom_site_fract_z
    _atom_site_occupancy
    Mo0     Mo   0.85762   0.33086   0.15982   1.000
    S1      S    0.02512   0.24813   0.22813   1.000
    S2      S    0.02518   0.24645   0.09217   1.000
    Mo3     Mo   0.02495   0.58063   0.16062   1.000
    S4      S    0.85307   0.49725   0.22780   1.000
    S5      S    0.85823   0.49814   0.09195   1.000
    Mo6     Mo   0.85782   0.82917   0.16076   1.000
    S7      S    0.02509   0.74642   0.22894   1.000
    S8      S    0.02505   0.74701   0.09270   1.000
    Mo9     Mo   0.02494   0.08007   0.16071   1.000
    S10     S    0.85707   0.99684   0.22870   1.000
    S11     S    0.85788   0.99640   0.09277   1.000
    Mo12    Mo   0.52501   0.33656   0.15815   1.000
    S13     S    0.68835   0.25105   0.22764   1.000
    S14     S    0.69056   0.24683   0.09181   1.000
    Mo15    Mo   0.68545   0.57690   0.15825   1.000
    S16     S    0.52507   0.49677   0.08620   1.000
    Mo17    Mo   0.52506   0.82897   0.15984   1.000
    S18     S    0.68901   0.74197   0.22784   1.000
    S19     S    0.69264   0.74579   0.09192   1.000
    Mo20    Mo   0.69078   0.08081   0.16045   1.000
    S21     S    0.52509   0.99598   0.22831   1.000
    S22     S    0.52502   0.99683   0.09221   1.000
    Mo23    Mo   0.19243   0.33103   0.15985   1.000
    S24     S    0.36165   0.25108   0.22765   1.000
    S25     S    0.35942   0.24689   0.09185   1.000
    Mo26    Mo   0.36454   0.57691   0.15825   1.000
    S27     S    0.19669   0.49750   0.22784   1.000
    S28     S    0.19159   0.49832   0.09193   1.000
    Mo29    Mo   0.19226   0.82919   0.16073   1.000
    S30     S    0.36116   0.74198   0.22785   1.000
    S31     S    0.35753   0.74574   0.09188   1.000
    Mo32    Mo   0.35913   0.08072   0.16046   1.000
    S33     S    0.19273   0.99678   0.22874   1.000
    S34     S    0.19191   0.99644   0.09273   1.000
    O35     O    0.86646   0.60379   0.26356   1.000
    O36     O    0.94228   0.39868   0.26057   1.000
